Version 4
SHEET 1 880 728
WIRE 336 -256 336 -384
WIRE 352 -256 336 -256
WIRE 480 -256 416 -256
WIRE 176 -176 80 -176
WIRE 304 -176 240 -176
WIRE 336 -176 336 -256
WIRE 352 -176 336 -176
WIRE 480 -176 480 -256
WIRE 480 -176 416 -176
WIRE 480 -144 480 -176
WIRE -832 -112 -832 -240
WIRE -736 -112 -736 -240
WIRE 80 -80 80 -176
WIRE 176 -80 80 -80
WIRE 304 -80 304 -176
WIRE 304 -80 256 -80
WIRE -832 16 -832 -32
WIRE -736 16 -736 -32
WIRE 304 64 304 -80
WIRE 368 64 304 64
WIRE -64 176 -64 112
WIRE -64 176 -272 176
WIRE 16 176 16 112
WIRE 80 176 80 -80
WIRE 80 176 16 176
WIRE 112 176 80 176
WIRE 160 176 112 176
WIRE 336 176 336 -176
WIRE 336 176 320 176
WIRE -272 192 -272 176
WIRE -272 192 -384 192
WIRE -176 192 -272 192
WIRE 160 208 48 208
WIRE 368 208 368 64
WIRE 368 208 320 208
WIRE 432 208 368 208
WIRE -384 224 -384 192
WIRE 48 224 48 208
WIRE -176 240 -176 192
WIRE 160 240 128 240
WIRE -384 368 -384 304
WIRE -272 368 -384 368
WIRE -176 368 -176 304
WIRE -176 368 -272 368
WIRE 48 384 48 304
WIRE 128 416 128 240
WIRE 176 416 128 416
WIRE 288 416 240 416
WIRE -272 480 -272 368
WIRE 128 512 128 416
WIRE 176 512 128 512
WIRE 288 512 288 416
WIRE 288 512 240 512
WIRE 288 544 288 512
WIRE 128 624 128 512
FLAG -736 16 0
FLAG -832 16 0
FLAG -736 -240 -Vs
FLAG -832 -240 Vs
FLAG 112 176 in
FLAG 48 384 0
FLAG 288 544 0
FLAG 480 -144 0
FLAG 336 -384 Vs
FLAG 128 624 -Vs
FLAG 432 208 out
FLAG -272 480 -Vs
SYMBOL AutoGenerated\\CLC425 240 240 R0
SYMATTR InstName U1
SYMBOL voltage -832 -128 R0
WINDOW 123 0 0 Left 0
WINDOW 39 0 0 Left 0
SYMATTR InstName Vs2
SYMATTR Value 7
SYMBOL voltage -736 -128 R0
WINDOW 123 0 0 Left 0
WINDOW 39 0 0 Left 0
SYMATTR InstName V1
SYMATTR Value -7
SYMBOL current -384 224 R0
WINDOW 123 24 28 Left 2
WINDOW 3 24 56 Left 2
WINDOW 39 0 0 Left 0
SYMATTR Value2 AC 1
SYMATTR Value 10µ
SYMATTR InstName Ip1
SYMBOL cap -192 240 R0
WINDOW 3 32 52 Left 2
SYMATTR Value 1.5p
SYMATTR InstName C3
SYMATTR SpiceLine V=50 Irms=20.8m Rser=5.448 Lser=0
SYMBOL res 32 208 R0
SYMATTR InstName R1
SYMATTR Value 1K
SYMATTR SpiceLine tol=1 pwr=0.1
SYMBOL polcap 416 -272 R90
WINDOW 0 0 32 VBottom 2
WINDOW 3 32 32 VTop 2
SYMATTR InstName Cc1
SYMATTR Value 6.8µ
SYMATTR Description Capacitor
SYMATTR Type cap
SYMATTR SpiceLine V=16 Irms=0 Rser=2.5 Lser=0 mfg="AVX" pn="TAJB685K016" type="Tantalum"
SYMBOL cap 416 -192 R90
WINDOW 0 0 32 VBottom 2
WINDOW 3 32 32 VTop 2
SYMATTR InstName Cc2
SYMATTR Value 0.1µ
SYMATTR SpiceLine V=10 Irms=4.04 Rser=0.0357547 Lser=0 mfg="KEMET" pn="C0402C104K8RAC" type="X7R"
SYMBOL polcap 240 400 R90
WINDOW 0 0 32 VBottom 2
WINDOW 3 32 32 VTop 2
SYMATTR InstName Cc3
SYMATTR Value 6.8µ
SYMATTR Description Capacitor
SYMATTR Type cap
SYMATTR SpiceLine V=10 Irms=0 Rser=3 Lser=0 mfg="AVX" pn="TAJB685K010" type="Tantalum"
SYMBOL cap 240 496 R90
WINDOW 0 0 32 VBottom 2
WINDOW 3 32 32 VTop 2
SYMATTR InstName Cc4
SYMATTR Value 0.1µ
SYMATTR SpiceLine V=10 Irms=4.04 Rser=0.0357547 Lser=0 mfg="KEMET" pn="C0402C104K8RAC" type="X7R"
SYMBOL res 272 -96 R90
WINDOW 0 0 56 VBottom 2
WINDOW 3 32 56 VTop 2
SYMATTR InstName Rf
SYMATTR Value 1K
SYMATTR SpiceLine tol=1 pwr=0.1
SYMBOL cap 240 -192 R90
WINDOW 0 0 32 VBottom 2
WINDOW 3 32 32 VTop 2
SYMATTR InstName Cf
SYMATTR Value 1.5p
SYMBOL voltage -80 112 R270
WINDOW 0 32 56 VTop 2
WINDOW 3 -32 56 VBottom 2
WINDOW 123 0 0 Left 0
WINDOW 39 0 0 Left 0
SYMATTR InstName in
SYMATTR Value 0
TEXT -424 144 Center 1 ;Photodiode Equivalent Circuit Model
TEXT -864 712 Left 2 !.ac dec 100 1Meg 10G
RECTANGLE Normal -112 384 -416 160 1
