Version 4
SHEET 1 880 728
WIRE 336 -256 336 -384
WIRE 352 -256 336 -256
WIRE 480 -256 416 -256
WIRE 176 -176 80 -176
WIRE 304 -176 240 -176
WIRE 336 -176 336 -256
WIRE 352 -176 336 -176
WIRE 480 -176 480 -256
WIRE 480 -176 416 -176
WIRE 480 -144 480 -176
WIRE -832 -112 -832 -240
WIRE -736 -112 -736 -240
WIRE 80 -80 80 -176
WIRE 112 -80 80 -80
WIRE 176 -80 112 -80
WIRE 304 -80 304 -176
WIRE 304 -80 256 -80
WIRE 112 0 112 -80
WIRE -832 16 -832 -32
WIRE -736 16 -736 -32
WIRE 304 48 304 -80
WIRE 400 48 304 48
WIRE -208 176 -272 176
WIRE -64 176 -64 112
WIRE -64 176 -128 176
WIRE 16 176 16 112
WIRE 112 176 112 80
WIRE 112 176 16 176
WIRE 160 176 112 176
WIRE 336 176 336 -176
WIRE 336 176 320 176
WIRE -272 208 -272 176
WIRE 160 208 48 208
WIRE 400 208 400 48
WIRE 400 208 320 208
WIRE 432 208 400 208
WIRE 560 208 512 208
WIRE 656 208 560 208
WIRE 48 224 48 208
WIRE 160 240 128 240
WIRE 560 272 560 208
WIRE 48 384 48 304
WIRE 560 384 560 336
WIRE 128 416 128 240
WIRE 176 416 128 416
WIRE 288 416 240 416
WIRE 128 512 128 416
WIRE 176 512 128 512
WIRE 288 512 288 416
WIRE 288 512 240 512
WIRE 288 544 288 512
WIRE 128 624 128 512
FLAG -736 16 0
FLAG -832 16 0
FLAG -736 -240 -Vs
FLAG -832 -240 Vs
FLAG 112 176 in
FLAG 48 384 0
FLAG 288 544 0
FLAG 480 -144 0
FLAG 336 -384 Vs
FLAG 128 624 -Vs
FLAG 656 208 out
FLAG -272 208 0
FLAG 80 -80 fb
FLAG 560 384 0
SYMBOL AutoGenerated\\CLC425 240 240 R0
SYMATTR InstName U1
SYMBOL voltage -832 -128 R0
WINDOW 123 0 0 Left 0
WINDOW 39 0 0 Left 0
SYMATTR InstName Vs2
SYMATTR Value 7
SYMBOL voltage -736 -128 R0
WINDOW 123 0 0 Left 0
WINDOW 39 0 0 Left 0
SYMATTR InstName V1
SYMATTR Value -7
SYMBOL res 32 208 R0
SYMATTR InstName R1
SYMATTR Value 1K
SYMATTR SpiceLine tol=1 pwr=0.1
SYMBOL polcap 416 -272 R90
WINDOW 0 0 32 VBottom 2
WINDOW 3 32 32 VTop 2
SYMATTR InstName Cc1
SYMATTR Value 6.8µ
SYMATTR Description Capacitor
SYMATTR Type cap
SYMATTR SpiceLine V=16 Irms=0 Rser=2.5 Lser=0 mfg="AVX" pn="TAJB685K016" type="Tantalum"
SYMBOL cap 416 -192 R90
WINDOW 0 0 32 VBottom 2
WINDOW 3 32 32 VTop 2
SYMATTR InstName Cc2
SYMATTR Value 0.1µ
SYMATTR SpiceLine V=10 Irms=4.04 Rser=0.0357547 Lser=0 mfg="KEMET" pn="C0402C104K8RAC" type="X7R"
SYMBOL polcap 240 400 R90
WINDOW 0 0 32 VBottom 2
WINDOW 3 32 32 VTop 2
SYMATTR InstName Cc3
SYMATTR Value 6.8µ
SYMATTR Description Capacitor
SYMATTR Type cap
SYMATTR SpiceLine V=10 Irms=0 Rser=3 Lser=0 mfg="AVX" pn="TAJB685K010" type="Tantalum"
SYMBOL cap 240 496 R90
WINDOW 0 0 32 VBottom 2
WINDOW 3 32 32 VTop 2
SYMATTR InstName Cc4
SYMATTR Value 0.1µ
SYMATTR SpiceLine V=10 Irms=4.04 Rser=0.0357547 Lser=0 mfg="KEMET" pn="C0402C104K8RAC" type="X7R"
SYMBOL res 272 -96 R90
WINDOW 0 0 56 VBottom 2
WINDOW 3 32 56 VTop 2
SYMATTR InstName Rf
SYMATTR Value 1K
SYMATTR SpiceLine tol=1 pwr=0.1
SYMBOL cap 240 -192 R90
WINDOW 0 0 32 VBottom 2
WINDOW 3 32 32 VTop 2
SYMATTR InstName Cf
SYMATTR Value 1.5p
SYMBOL voltage -80 112 R270
WINDOW 0 32 56 VTop 2
WINDOW 3 -32 56 VBottom 2
WINDOW 123 0 0 Left 0
WINDOW 39 0 0 Left 0
SYMATTR InstName in
SYMATTR Value 0
SYMBOL voltage 112 -16 R0
WINDOW 123 28 47 Left 2
WINDOW 39 0 0 Left 0
SYMATTR InstName V2
SYMATTR Value 0
SYMATTR Value2 AC 1
SYMBOL res -112 160 R90
WINDOW 0 0 56 VBottom 2
WINDOW 3 32 56 VTop 2
SYMATTR InstName Rs
SYMATTR Value 100
SYMATTR SpiceLine tol=1 pwr=0.1
SYMBOL cap 544 272 R0
SYMATTR InstName C1
SYMATTR Value 600p
SYMBOL res 528 192 R90
WINDOW 0 0 56 VBottom 2
WINDOW 3 32 56 VTop 2
SYMATTR InstName R2
SYMATTR Value {Rpar}
TEXT -864 712 Left 2 !.ac dec 100 1Meg 10G
TEXT -1248 512 Left 2 ;Photodiode series resistance practically between 10s to 1000s of Ohms.
TEXT 440 504 Left 2 !.step param Rpar list 0.1 50
